[General]
network = Lan80211
record-eventlog = true
sim-time-limit = 360s
**.numHosts = 60
**.numAPs = 16
