[General]
print-undisposed=false
network = Trabalho3
record-eventlog = false
sim-time-limit = 80s
**.numHosts = 2 #${N=5..30 step 5} 
repeat=1
seed-set = ${repetition}

**.constraintAreaMinX = 0m
**.constraintAreaMinY = 0m
**.constraintAreaMinZ = 0m
**.constraintAreaMaxX = 400m
**.constraintAreaMaxY = 150m
**.constraintAreaMaxZ = 0m

**.hostNor[*].numUdpApps = 2
**.hostSul[*].numUdpApps = 2
**.dhcpServer.numUdpApps = 1


##### DHCP #############

**.hostNor[*].udpApp[0].typename = "DHCPClient"
**.hostNor[*].numPingApps = 1
**.hostNor[*].pingApp[0].destAddr = "dhcpServer"
**.hostNor[*].pingApp[0].startTime = 3s


**.hostSul[*].udpApp[0].typename = "DHCPClient"
**.hostSul[*].numPingApps = 1
**.hostSul[*].pingApp[0].destAddr = "dhcpServer"
**.hostSul[*].pingApp[0].startTime = 3s



**.dhcpServer.udpApp[0].typename = "DHCPServer"
**.dhcpServer.udpApp[0].subnetMask = "255.255.255.0"
**.dhcpServer.udpApp[0].ipAddressStart = "192.168.0.10"
**.dhcpServer.udpApp[0].maxNumClients = 100
**.dhcpServer.udpApp[0].gateway = "192.168.0.1"
**.dhcpServer.udpApp[0].dns = "192.168.0.1"
**.dhcpServer.udpApp[0].leaseTime = 100s

#####################################

**.voipServer.udpApp[0].typename = "SimpleVoIPReceiver"
**.voipServer.udpApp[0].localPort = 2000

**.hostNor[*].udpApp[1].typename = "SimpleVoIPSender"
**.hostNor[*].udpApp[1].destPort = 2000
**.hostNor[*].udpApp[1].destAddress = "voipServer"
**.hostNor[*].udpApp[1].startTime = 10s
**.hostNor[*].udpApp[1].stopTime = 70s

**.hostSul[*].udpApp[1].typename = "SimpleVoIPSender"
**.hostSul[*].udpApp[1].destPort = 2000
**.hostSul[*].udpApp[1].destAddress = "voipServer"
**.hostSul[*].udpApp[1].startTime = 10s
**.hostSul[*].udpApp[1].stopTime = 70s

####### OTHER SETTINGS ###############
**.wlan*.bitrate = 6Mbps #${TX=6,11, 27, 54}Mbps

**.mac.address = "auto"
#**.mac.maxQueueSize = 14
#**.mac.rtsThresholdBytes = 3000B
#**.wlan[*].mac.retryLimit = 7
#**.wlan[*].mac.cwMinData = 7

#**.radio.transmitterPower = 2.0mW
**.radio.carrierFrequency = 5GHz#${HZ=2.4, 5}GHz

######################################
